pcf
* control data
             restart          estimation
      1123     16920         1         0         1         0
        18       423              single               point         1         0         0          noobsreref
   2.000000E+01  -3.000000E+00   3.000000E-01   1.000000E-02        -7       999          lamforgive        noderforgive
   1.000000E+01   1.000000E+01   1.000000E-03         0         0
   1.000000E-01         1   1.100000E+00               noaui          nosenreuse        noboundscale
        30   1.000000E-02         3         3   1.000000E-02         3   0.000000E+00         1  -1.000000E+00
         0         0         0         0             jcosave          verboserec          jcosaveitn          reisaveitn          parsaveitn        noparsaverun
* singular value decomposition
         1
  10000000    1.000000E-06
1
* parameter groups
pargp                  relative              1.0000000000E-02      0.0 switch                2.0000000000E+00      parabolic             1.0000000000E-05      5.0000000000E-01      smaller              
* parameter data
emmca_l01_zpc01       log                   factor                1.0000000000E+00      1.1000000000E-10      1.1000000000E+10      pargp                 1.0000000000E+00      0.0000000000E+00      1          
emmca_l02_zpc01       log                   factor                1.0000000000E+00      1.1000000000E-10      1.1000000000E+10      pargp                 1.0000000000E+00      0.0000000000E+00      1          
emmca_l03_zpc01       log                   factor                1.0000000000E+00      1.1000000000E-10      1.1000000000E+10      pargp                 1.0000000000E+00      0.0000000000E+00      1          
emmca_l04_zpc01       log                   factor                1.0000000000E+00      1.1000000000E-10      1.1000000000E+10      pargp                 1.0000000000E+00      0.0000000000E+00      1          
emmca_l05_zpc01       log                   factor                1.0000000000E+00      1.1000000000E-10      1.1000000000E+10      pargp                 1.0000000000E+00      0.0000000000E+00      1          
emmca_l06_zpc01       log                   factor                1.0000000000E+00      1.1000000000E-10      1.1000000000E+10      pargp                 1.0000000000E+00      0.0000000000E+00      1          
emmca_l07_zpc01       log                   factor                1.0000000000E+00      1.1000000000E-10      1.1000000000E+10      pargp                 1.0000000000E+00      0.0000000000E+00      1          
emmca_l08_zpc01       log                   factor                1.0000000000E+00      1.1000000000E-10      1.1000000000E+10      pargp                 1.0000000000E+00      0.0000000000E+00      1          
emmca_l09_zpc01       log                   factor                1.0000000000E+00      1.1000000000E-10      1.1000000000E+10      pargp                 1.0000000000E+00      0.0000000000E+00      1          
emmca_l10_zpc01       log                   factor                1.0000000000E+00      1.1000000000E-10      1.1000000000E+10      pargp                 1.0000000000E+00      0.0000000000E+00      1          
emmca_l11_zpc01       log                   factor                1.0000000000E+00      1.1000000000E-10      1.1000000000E+10      pargp                 1.0000000000E+00      0.0000000000E+00      1          
emmca_l12_zpc01       log                   factor                1.0000000000E+00      1.1000000000E-10      1.1000000000E+10      pargp                 1.0000000000E+00      0.0000000000E+00      1          
emmca_l13_zpc01       log                   factor                1.0000000000E+00      1.1000000000E-10      1.1000000000E+10      pargp                 1.0000000000E+00      0.0000000000E+00      1          
emmca_l14_zpc01       log                   factor                1.0000000000E+00      1.1000000000E-10      1.1000000000E+10      pargp                 1.0000000000E+00      0.0000000000E+00      1          
emmca_l15_zpc01       log                   factor                1.0000000000E+00      1.1000000000E-10      1.1000000000E+10      pargp                 1.0000000000E+00      0.0000000000E+00      1          
emmli_l01_zpc01       log                   factor                1.0000000000E+00      1.1000000000E-10      1.1000000000E+10      pargp                 1.0000000000E+00      0.0000000000E+00      1          
emmli_l02_zpc01       log                   factor                1.0000000000E+00      1.1000000000E-10      1.1000000000E+10      pargp                 1.0000000000E+00      0.0000000000E+00      1          
emmli_l03_zpc01       log                   factor                1.0000000000E+00      1.1000000000E-10      1.1000000000E+10      pargp                 1.0000000000E+00      0.0000000000E+00      1          
emmli_l04_zpc01       log                   factor                1.0000000000E+00      1.1000000000E-10      1.1000000000E+10      pargp                 1.0000000000E+00      0.0000000000E+00      1          
emmli_l05_zpc01       log                   factor                1.0000000000E+00      1.1000000000E-10      1.1000000000E+10      pargp                 1.0000000000E+00      0.0000000000E+00      1          
emmli_l06_zpc01       log                   factor                1.0000000000E+00      1.1000000000E-10      1.1000000000E+10      pargp                 1.0000000000E+00      0.0000000000E+00      1          
emmli_l07_zpc01       log                   factor                1.0000000000E+00      1.1000000000E-10      1.1000000000E+10      pargp                 1.0000000000E+00      0.0000000000E+00      1          
emmli_l08_zpc01       log                   factor                1.0000000000E+00      1.1000000000E-10      1.1000000000E+10      pargp                 1.0000000000E+00      0.0000000000E+00      1          
emmli_l09_zpc01       log                   factor                1.0000000000E+00      1.1000000000E-10      1.1000000000E+10      pargp                 1.0000000000E+00      0.0000000000E+00      1          
emmli_l10_zpc01       log                   factor                1.0000000000E+00      1.1000000000E-10      1.1000000000E+10      pargp                 1.0000000000E+00      0.0000000000E+00      1          
emmli_l11_zpc01       log                   factor                1.0000000000E+00      1.1000000000E-10      1.1000000000E+10      pargp                 1.0000000000E+00      0.0000000000E+00      1          
emmli_l12_zpc01       log                   factor                1.0000000000E+00      1.1000000000E-10      1.1000000000E+10      pargp                 1.0000000000E+00      0.0000000000E+00      1          
emmli_l13_zpc01       log                   factor                1.0000000000E+00      1.1000000000E-10      1.1000000000E+10      pargp                 1.0000000000E+00      0.0000000000E+00      1          
emmli_l14_zpc01       log                   factor                1.0000000000E+00      1.1000000000E-10      1.1000000000E+10      pargp                 1.0000000000E+00      0.0000000000E+00      1          
emmli_l15_zpc01       log                   factor                1.0000000000E+00      1.1000000000E-10      1.1000000000E+10      pargp                 1.0000000000E+00      0.0000000000E+00      1          
kepon_l01_zpc01       fixed                 factor                1.0000000000E+00      0.0000000000E+00      1.1000000000E+10      pargp                 1.0000000000E+00      0.0000000000E+00      1          
kepon_l02_zpc01       log                   factor                1.0000000000E+00      1.1000000000E-10      1.1000000000E+10      pargp                 1.0000000000E+00      0.0000000000E+00      1          
kepon_l03_zpc01       log                   factor                1.0000000000E+00      1.1000000000E-10      1.1000000000E+10      pargp                 1.0000000000E+00      0.0000000000E+00      1          
kepon_l04_zpc01       log                   factor                1.0000000000E+00      1.1000000000E-10      1.1000000000E+10      pargp                 1.0000000000E+00      0.0000000000E+00      1          
kepon_l05_zpc01       log                   factor                1.0000000000E+00      1.1000000000E-10      1.1000000000E+10      pargp                 1.0000000000E+00      0.0000000000E+00      1          
kepon_l06_zpc01       log                   factor                1.0000000000E+00      1.1000000000E-10      1.1000000000E+10      pargp                 1.0000000000E+00      0.0000000000E+00      1          
kepon_l07_zpc01       log                   factor                1.0000000000E+00      1.1000000000E-10      1.1000000000E+10      pargp                 1.0000000000E+00      0.0000000000E+00      1          
kepon_l08_zpc01       log                   factor                1.0000000000E+00      1.1000000000E-10      1.1000000000E+10      pargp                 1.0000000000E+00      0.0000000000E+00      1          
kepon_l09_zpc01       log                   factor                1.0000000000E+00      1.1000000000E-10      1.1000000000E+10      pargp                 1.0000000000E+00      0.0000000000E+00      1          
kepon_l10_zpc01       log                   factor                1.0000000000E+00      1.1000000000E-10      1.1000000000E+10      pargp                 1.0000000000E+00      0.0000000000E+00      1          
kepon_l11_zpc01       log                   factor                1.0000000000E+00      1.1000000000E-10      1.1000000000E+10      pargp                 1.0000000000E+00      0.0000000000E+00      1          
kepon_l12_zpc01       log                   factor                1.0000000000E+00      1.1000000000E-10      1.1000000000E+10      pargp                 1.0000000000E+00      0.0000000000E+00      1          
kepon_l13_zpc01       log                   factor                1.0000000000E+00      1.1000000000E-10      1.1000000000E+10      pargp                 1.0000000000E+00      0.0000000000E+00      1          
kepon_l14_zpc01       log                   factor                1.0000000000E+00      1.1000000000E-10      1.1000000000E+10      pargp                 1.0000000000E+00      0.0000000000E+00      1          
kepon_l15_zpc01       log                   factor                1.0000000000E+00      1.1000000000E-10      1.1000000000E+10      pargp                 1.0000000000E+00      0.0000000000E+00      1          
permh_l01_z01_000     log                   factor                1.0000000000E+00      1.1000000000E-10      1.1000000000E+10      pargp                 1.0000000000E+00      0.0000000000E+00      1          
permh_l01_z01_001     log                   factor                1.0000000000E+00      1.1000000000E-10      1.1000000000E+10      pargp                 1.0000000000E+00      0.0000000000E+00      1          
permh_l01_z01_002     log                   factor                1.0000000000E+00      1.1000000000E-10      1.1000000000E+10      pargp                 1.0000000000E+00      0.0000000000E+00      1          
permh_l01_z01_003     log                   factor                1.0000000000E+00      1.1000000000E-10      1.1000000000E+10      pargp                 1.0000000000E+00      0.0000000000E+00      1          
permh_l01_z01_004     log                   factor                1.0000000000E+00      1.1000000000E-10      1.1000000000E+10      pargp                 1.0000000000E+00      0.0000000000E+00      1          
permh_l01_z01_005     log                   factor                1.0000000000E+00      1.1000000000E-10      1.1000000000E+10      pargp                 1.0000000000E+00      0.0000000000E+00      1          
permh_l01_z01_006     log                   factor                1.0000000000E+00      1.1000000000E-10      1.1000000000E+10      pargp                 1.0000000000E+00      0.0000000000E+00      1          
permh_l01_z01_007     log                   factor                1.0000000000E+00      1.1000000000E-10      1.1000000000E+10      pargp                 1.0000000000E+00      0.0000000000E+00      1          
permh_l01_z01_008     log                   factor                1.0000000000E+00      1.1000000000E-10      1.1000000000E+10      pargp                 1.0000000000E+00      0.0000000000E+00      1          
permh_l01_z01_009     log                   factor                1.0000000000E+00      1.1000000000E-10      1.1000000000E+10      pargp                 1.0000000000E+00      0.0000000000E+00      1          
permh_l01_z01_010     log                   factor                1.0000000000E+00      1.1000000000E-10      1.1000000000E+10      pargp                 1.0000000000E+00      0.0000000000E+00      1          
permh_l01_z01_011     log                   factor                1.0000000000E+00      1.1000000000E-10      1.1000000000E+10      pargp                 1.0000000000E+00      0.0000000000E+00      1          
permh_l01_z01_012     log                   factor                1.0000000000E+00      1.1000000000E-10      1.1000000000E+10      pargp                 1.0000000000E+00      0.0000000000E+00      1          
permh_l01_z01_013     log                   factor                1.0000000000E+00      1.1000000000E-10      1.1000000000E+10      pargp                 1.0000000000E+00      0.0000000000E+00      1          
permh_l01_z01_014     log                   factor                1.0000000000E+00      1.1000000000E-10      1.1000000000E+10      pargp                 1.0000000000E+00      0.0000000000E+00      1          
permh_l01_z01_015     log                   factor                1.0000000000E+00      1.1000000000E-10      1.1000000000E+10      pargp                 1.0000000000E+00      0.0000000000E+00      1          
permh_l01_z01_016     log                   factor                1.0000000000E+00      1.1000000000E-10      1.1000000000E+10      pargp                 1.0000000000E+00      0.0000000000E+00      1          
permh_l01_z01_017     log                   factor                1.0000000000E+00      1.1000000000E-10      1.1000000000E+10      pargp                 1.0000000000E+00      0.0000000000E+00      1          
permh_l01_z01_018     log                   factor                1.0000000000E+00      1.1000000000E-10      1.1000000000E+10      pargp                 1.0000000000E+00      0.0000000000E+00      1          
permh_l01_z01_019     log                   factor                1.0000000000E+00      1.1000000000E-10      1.1000000000E+10      pargp                 1.0000000000E+00      0.0000000000E+00      1          
permh_l01_z01_020     log                   factor                1.0000000000E+00      1.1000000000E-10      1.1000000000E+10      pargp                 1.0000000000E+00      0.0000000000E+00      1          
permh_l01_z01_021     log                   factor                1.0000000000E+00      1.1000000000E-10      1.1000000000E+10      pargp                 1.0000000000E+00      0.0000000000E+00      1          
permh_l01_z01_022     log                   factor                1.0000000000E+00      1.1000000000E-10      1.1000000000E+10      pargp                 1.0000000000E+00      0.0000000000E+00      1          
permh_l01_z01_023     log                   factor                1.0000000000E+00      1.1000000000E-10      1.1000000000E+10      pargp                 1.0000000000E+00      0.0000000000E+00      1          
permh_l01_z01_024     log                   factor                1.0000000000E+00      1.1000000000E-10      1.1000000000E+10      pargp                 1.0000000000E+00      0.0000000000E+00      1          
permh_l01_z01_025     log                   factor                1.0000000000E+00      1.1000000000E-10      1.1000000000E+10      pargp                 1.0000000000E+00      0.0000000000E+00      1          
permh_l01_z01_026     log                   factor                1.0000000000E+00      1.1000000000E-10      1.1000000000E+10      pargp                 1.0000000000E+00      0.0000000000E+00      1          
permh_l01_z01_027     log                   factor                1.0000000000E+00      1.1000000000E-10      1.1000000000E+10      pargp                 1.0000000000E+00      0.0000000000E+00      1          
permh_l01_z01_028     log                   factor                1.0000000000E+00      1.1000000000E-10      1.1000000000E+10      pargp                 1.0000000000E+00      0.0000000000E+00      1          
permh_l01_z01_029     log                   factor                1.0000000000E+00      1.1000000000E-10      1.1000000000E+10      pargp                 1.0000000000E+00      0.0000000000E+00      1          
permh_l01_z01_030     log                   factor                1.0000000000E+00      1.1000000000E-10      1.1000000000E+10      pargp                 1.0000000000E+00      0.0000000000E+00      1          
permh_l01_z01_031     log                   factor                1.0000000000E+00      1.1000000000E-10      1.1000000000E+10      pargp                 1.0000000000E+00      0.0000000000E+00      1          
permh_l01_z01_032     log                   factor                1.0000000000E+00      1.1000000000E-10      1.1000000000E+10      pargp                 1.0000000000E+00      0.0000000000E+00      1          
permh_l01_z01_033     log                   factor                1.0000000000E+00      1.1000000000E-10      1.1000000000E+10      pargp                 1.0000000000E+00      0.0000000000E+00      1          
permh_l01_z01_034     log                   factor                1.0000000000E+00      1.1000000000E-10      1.1000000000E+10      pargp                 1.0000000000E+00      0.0000000000E+00      1          
permh_l01_z01_035     log                   factor                1.0000000000E+00      1.1000000000E-10      1.1000000000E+10      pargp                 1.0000000000E+00      0.0000000000E+00      1          
permh_l01_z01_036     log                   factor                1.0000000000E+00      1.1000000000E-10      1.1000000000E+10      pargp                 1.0000000000E+00      0.0000000000E+00      1          
permh_l01_z01_037     log                   factor                1.0000000000E+00      1.1000000000E-10      1.1000000000E+10      pargp                 1.0000000000E+00      0.0000000000E+00      1          
permh_l01_z01_038     log                   factor                1.0000000000E+00      1.1000000000E-10      1.1000000000E+10      pargp                 1.0000000000E+00      0.0000000000E+00      1          
permh_l01_z01_039     log                   factor                1.0000000000E+00      1.1000000000E-10      1.1000000000E+10      pargp                 1.0000000000E+00      0.0000000000E+00      1          
permh_l01_z01_040     log                   factor                1.0000000000E+00      1.1000000000E-10      1.1000000000E+10      pargp                 1.0000000000E+00      0.0000000000E+00      1          
permh_l01_z01_041     log                   factor                1.0000000000E+00      1.1000000000E-10      1.1000000000E+10      pargp                 1.0000000000E+00      0.0000000000E+00      1          
permh_l01_z01_042     log                   factor                1.0000000000E+00      1.1000000000E-10      1.1000000000E+10      pargp                 1.0000000000E+00      0.0000000000E+00      1          
permh_l01_z01_043     log                   factor                1.0000000000E+00      1.1000000000E-10      1.1000000000E+10      pargp                 1.0000000000E+00      0.0000000000E+00      1          
permh_l01_z01_044     log                   factor                1.0000000000E+00      1.1000000000E-10      1.1000000000E+10      pargp                 1.0000000000E+00      0.0000000000E+00      1          
permh_l01_z01_045     log                   factor                1.0000000000E+00      1.1000000000E-10      1.1000000000E+10      pargp                 1.0000000000E+00      0.0000000000E+00      1          
permh_l01_z01_046     log                   factor                1.0000000000E+00      1.1000000000E-10      1.1000000000E+10      pargp                 1.0000000000E+00      0.0000000000E+00      1          
permh_l01_z01_047     log                   factor                1.0000000000E+00      1.1000000000E-10      1.1000000000E+10      pargp                 1.0000000000E+00      0.0000000000E+00      1          
permh_l01_z01_048     log                   factor                1.0000000000E+00      1.1000000000E-10      1.1000000000E+10      pargp                 1.0000000000E+00      0.0000000000E+00      1          
permh_l02_z01_000     log                   factor                1.0000000000E+00      1.1000000000E-10      1.1000000000E+10      pargp                 1.0000000000E+00      0.0000000000E+00      1          
permh_l02_z01_001     log                   factor                1.0000000000E+00      1.1000000000E-10      1.1000000000E+10      pargp                 1.0000000000E+00      0.0000000000E+00      1          
permh_l02_z01_002     log                   factor                1.0000000000E+00      1.1000000000E-10      1.1000000000E+10      pargp                 1.0000000000E+00      0.0000000000E+00      1          
permh_l02_z01_003     log                   factor                1.0000000000E+00      1.1000000000E-10      1.1000000000E+10      pargp                 1.0000000000E+00      0.0000000000E+00      1          
permh_l02_z01_004     log                   factor                1.0000000000E+00      1.1000000000E-10      1.1000000000E+10      pargp                 1.0000000000E+00      0.0000000000E+00      1          
permh_l02_z01_005     log                   factor                1.0000000000E+00      1.1000000000E-10      1.1000000000E+10      pargp                 1.0000000000E+00      0.0000000000E+00      1          
permh_l02_z01_006     log                   factor                1.0000000000E+00      1.1000000000E-10      1.1000000000E+10      pargp                 1.0000000000E+00      0.0000000000E+00      1          
permh_l02_z01_007     log                   factor                1.0000000000E+00      1.1000000000E-10      1.1000000000E+10      pargp                 1.0000000000E+00      0.0000000000E+00      1          
permh_l02_z01_008     log                   factor                1.0000000000E+00      1.1000000000E-10      1.1000000000E+10      pargp                 1.0000000000E+00      0.0000000000E+00      1          
permh_l02_z01_009     log                   factor                1.0000000000E+00      1.1000000000E-10      1.1000000000E+10      pargp                 1.0000000000E+00      0.0000000000E+00      1          
permh_l02_z01_010     log                   factor                1.0000000000E+00      1.1000000000E-10      1.1000000000E+10      pargp                 1.0000000000E+00      0.0000000000E+00      1          
permh_l02_z01_011     log                   factor                1.0000000000E+00      1.1000000000E-10      1.1000000000E+10      pargp                 1.0000000000E+00      0.0000000000E+00      1          
permh_l02_z01_012     log                   factor                1.0000000000E+00      1.1000000000E-10      1.1000000000E+10      pargp                 1.0000000000E+00      0.0000000000E+00      1          
permh_l02_z01_013     log                   factor                1.0000000000E+00      1.1000000000E-10      1.1000000000E+10      pargp                 1.0000000000E+00      0.0000000000E+00      1          
permh_l02_z01_014     log                   factor                1.0000000000E+00      1.1000000000E-10      1.1000000000E+10      pargp                 1.0000000000E+00      0.0000000000E+00      1          
permh_l02_z01_015     log                   factor                1.0000000000E+00      1.1000000000E-10      1.1000000000E+10      pargp                 1.0000000000E+00      0.0000000000E+00      1          
permh_l02_z01_016     log                   factor                1.0000000000E+00      1.1000000000E-10      1.1000000000E+10      pargp                 1.0000000000E+00      0.0000000000E+00      1          
permh_l02_z01_017     log                   factor                1.0000000000E+00      1.1000000000E-10      1.1000000000E+10      pargp                 1.0000000000E+00      0.0000000000E+00      1          
permh_l02_z01_018     log                   factor                1.0000000000E+00      1.1000000000E-10      1.1000000000E+10      pargp                 1.0000000000E+00      0.0000000000E+00      1          
permh_l02_z01_019     log                   factor                1.0000000000E+00      1.1000000000E-10      1.1000000000E+10      pargp                 1.0000000000E+00      0.0000000000E+00      1          
permh_l02_z01_020     log                   factor                1.0000000000E+00      1.1000000000E-10      1.1000000000E+10      pargp                 1.0000000000E+00      0.0000000000E+00      1          
permh_l02_z01_021     log                   factor                1.0000000000E+00      1.1000000000E-10      1.1000000000E+10      pargp                 1.0000000000E+00      0.0000000000E+00      1          
permh_l02_z01_022     log                   factor                1.0000000000E+00      1.1000000000E-10      1.1000000000E+10      pargp                 1.0000000000E+00      0.0000000000E+00      1          
permh_l02_z01_023     log                   factor                1.0000000000E+00      1.1000000000E-10      1.1000000000E+10      pargp                 1.0000000000E+00      0.0000000000E+00      1          
permh_l02_z01_024     log                   factor                1.0000000000E+00      1.1000000000E-10      1.1000000000E+10      pargp                 1.0000000000E+00      0.0000000000E+00      1          
permh_l02_z01_025     log                   factor                1.0000000000E+00      1.1000000000E-10      1.1000000000E+10      pargp                 1.0000000000E+00      0.0000000000E+00      1          
permh_l02_z01_026     log                   factor                1.0000000000E+00      1.1000000000E-10      1.1000000000E+10      pargp                 1.0000000000E+00      0.0000000000E+00      1          
permh_l02_z01_027     log                   factor                1.0000000000E+00      1.1000000000E-10      1.1000000000E+10      pargp                 1.0000000000E+00      0.0000000000E+00      1          
permh_l02_z01_028     log                   factor                1.0000000000E+00      1.1000000000E-10      1.1000000000E+10      pargp                 1.0000000000E+00      0.0000000000E+00      1          
permh_l02_z01_029     log                   factor                1.0000000000E+00      1.1000000000E-10      1.1000000000E+10      pargp                 1.0000000000E+00      0.0000000000E+00      1          
permh_l02_z01_030     log                   factor                1.0000000000E+00      1.1000000000E-10      1.1000000000E+10      pargp                 1.0000000000E+00      0.0000000000E+00      1          
permh_l02_z01_031     log                   factor                1.0000000000E+00      1.1000000000E-10      1.1000000000E+10      pargp                 1.0000000000E+00      0.0000000000E+00      1          
permh_l02_z01_032     log                   factor                1.0000000000E+00      1.1000000000E-10      1.1000000000E+10      pargp                 1.0000000000E+00      0.0000000000E+00      1          
permh_l02_z01_033     log                   factor                1.0000000000E+00      1.1000000000E-10      1.1000000000E+10      pargp                 1.0000000000E+00      0.0000000000E+00      1          
permh_l02_z01_034     log                   factor                1.0000000000E+00      1.1000000000E-10      1.1000000000E+10      pargp                 1.0000000000E+00      0.0000000000E+00      1          
permh_l02_z01_035     log                   factor                1.0000000000E+00      1.1000000000E-10      1.1000000000E+10      pargp                 1.0000000000E+00      0.0000000000E+00      1          
permh_l02_z01_036     log                   factor                1.0000000000E+00      1.1000000000E-10      1.1000000000E+10      pargp                 1.0000000000E+00      0.0000000000E+00      1          
permh_l02_z01_037     log                   factor                1.0000000000E+00      1.1000000000E-10      1.1000000000E+10      pargp                 1.0000000000E+00      0.0000000000E+00      1          
permh_l03_z01_000     log                   factor                1.0000000000E+00      1.1000000000E-10      1.1000000000E+10      pargp                 1.0000000000E+00      0.0000000000E+00      1          
permh_l03_z01_001     log                   factor                1.0000000000E+00      1.1000000000E-10      1.1000000000E+10      pargp                 1.0000000000E+00      0.0000000000E+00      1          
permh_l03_z01_002     log                   factor                1.0000000000E+00      1.1000000000E-10      1.1000000000E+10      pargp                 1.0000000000E+00      0.0000000000E+00      1          
permh_l03_z01_003     log                   factor                1.0000000000E+00      1.1000000000E-10      1.1000000000E+10      pargp                 1.0000000000E+00      0.0000000000E+00      1          
permh_l03_z01_004     log                   factor                1.0000000000E+00      1.1000000000E-10      1.1000000000E+10      pargp                 1.0000000000E+00      0.0000000000E+00      1          