pcf
* control data
             restart          estimation
        15     16920         1         0       423         0
         1       423              single               point         1         0         0          noobsreref
   2.000000E+01  -3.000000E+00   3.000000E-01   1.000000E-02        -7       999          lamforgive        noderforgive
   1.000000E+01   1.000000E+01   1.000000E-03         0         0
   1.000000E-01         1   1.100000E+00               noaui          nosenreuse        noboundscale
        0   1.000000E-02         3         3   1.000000E-02         3   0.000000E+00         1  -1.000000E+00
         0         0         0         0             jcosave          verboserec          jcosaveitn          reisaveitn          parsaveitn        noparsaverun
* singular value decomposition
         1
  10000000    1.000000E-06
1
* parameter groups
kepon                   relative              1.0000000000E-02       0.0  switch                2.0000000000E+00       parabolic             1.0000000000E-05      5.0000000000E-01       smaller
* parameter data
kepon_l01_zpc01        log                    factor                1.5000000000E-05      1.1000000000E-10      1.1000000000E+10       kepon                 1.0000000000E+00      0.0000000000E+00      1          
kepon_l02_zpc01        log                    factor                2.3000000000E-04      1.1000000000E-10      1.1000000000E+10       kepon                 1.0000000000E+00      0.0000000000E+00      1          
kepon_l03_zpc01        log                    factor                1.0000000000E-06      1.1000000000E-10      1.1000000000E+10       kepon                 1.0000000000E+00      0.0000000000E+00      1          
kepon_l04_zpc01        log                    factor                1.0000000000E-06      1.1000000000E-10      1.1000000000E+10       kepon                 1.0000000000E+00      0.0000000000E+00      1          
kepon_l05_zpc01        log                    factor                1.0000000000E-06      1.1000000000E-10      1.1000000000E+10       kepon                 1.0000000000E+00      0.0000000000E+00      1          
kepon_l06_zpc01        log                    factor                1.0000000000E-06      1.1000000000E-10      1.1000000000E+10       kepon                 1.0000000000E+00      0.0000000000E+00      1          
kepon_l07_zpc01        log                    factor                1.0000000000E-06      1.1000000000E-10      1.1000000000E+10       kepon                 1.0000000000E+00      0.0000000000E+00      1          
kepon_l08_zpc01        log                    factor                1.0000000000E-06      1.1000000000E-10      1.1000000000E+10       kepon                 1.0000000000E+00      0.0000000000E+00      1          
kepon_l09_zpc01        log                    factor                1.0000000000E-06      1.1000000000E-10      1.1000000000E+10       kepon                 1.0000000000E+00      0.0000000000E+00      1          
kepon_l10_zpc01        log                    factor                1.0000000000E-06      1.1000000000E-10      1.1000000000E+10       kepon                 1.0000000000E+00      0.0000000000E+00      1          
kepon_l11_zpc01        log                    factor                1.0000000000E-06      1.1000000000E-10      1.1000000000E+10       kepon                 1.0000000000E+00      0.0000000000E+00      1          
kepon_l12_zpc01        log                    factor                1.0000000000E-06      1.1000000000E-10      1.1000000000E+10       kepon                 1.0000000000E+00      0.0000000000E+00      1          
kepon_l13_zpc01        log                    factor                1.0000000000E-06      1.1000000000E-10      1.1000000000E+10       kepon                 1.0000000000E+00      0.0000000000E+00      1          
kepon_l14_zpc01        log                    factor                1.0000000000E-06      1.1000000000E-10      1.1000000000E+10       kepon                 1.0000000000E+00      0.0000000000E+00      1          
kepon_l15_zpc01        log                    factor                1.0000000000E-06      1.1000000000E-10      1.1000000000E+10       kepon                 1.0000000000E+00      0.0000000000E+00      1
* observation groups
07065X0002           
07074X0014           
07077X0023           
07095X0117           
07097X0067           
07294X0002           
07294X0012           
07294X0029           
07298X0001           
07298X0004           
07298X0015           
07298X0017           
07304X0007           
07305X0001           
07305X0022           
07305X0036           
07305X0052           
07306X0066           
07307X0087           
07312X0034           
07326X0028           
07332X0530           
07333X0027           
07336X0002           
07336X0543           
07338X0016           
07338X0017           
07341X0007           
07343X0007           
07345X0018           
07345X0020           
07345X0021           
07345X0023           
07346X0017           
07346X0024           
07347X0004           
07348X0015           
07355X0005           
07355X0006           
07355X0007           
07538X0009           
07542X0002           
07542X0042           
07543X0010           
07543X0085           
07544X0001           
07544X0091           
07545X0001           
07545X0002           
07545X0021           
07548X0002           
07548X0009           
07548X0117           
07548X0234           
07552X0012           
07555X0030           
07555X0040           
07555X0070           
07555X0071           
07555X0072           
07556X0083           
07561X0006           
07574X0014           
07577X0022           
07581X0009           
07583X0018           
07583X0019           
07584X0002           
07584X0007           
07588X0045           
07588X0048           
07595X0006           
07595X0009           
07595X0016           
07597X0006           
07598X0004           
07598X0005           
07598X0007           
07774X0001           
07778X0002           
07778X0033           
07783X0008           
07784X0031           
07785X0001           
07785X0003           
07786X0001           
07786X0051           
07786X0087           
07787X0010           
07788X0037           
07791X0002           
07791X0004           
07791X0006           
07791X0204           
07792X0006           
07794X0007           
07796X0001           
07796X0045           
07796X0069           
07798X0004           
07803X0505           
07804X0001           
07804X0003           
07807X0002           
07807X0004           
07808X0002           
07808X0008           
07808X0009           
07808X0015           
07808X0196           
07811X0011           
07813X0006           
07815X0056           
07816X0032           
07818X0008           
07818X0009           
07818X0012           
07818X0030           
07818X0033           
07822X0011           
07823X0007           
07828X0020           
07831X0007           
07833X0007           
07834X0012           
07835X0003           
07835X0014           
07836X0005           
07836X0009           
08013X0001           
08014X0004           
08014X0032           
08018X0002           
08018X0004           
08021X0001           
08021X0002           
08022X0004           
08022X0008           
08022X0009           
08022X0010           
08022X0013           
08023X0001           
08023X0039           
08023X0044           
08024X0019           
08024X0050           
08025X0009           
08026X0001           
08026X0034           
08026X0036           
08028X0176           
08032X0001           
08032X0211           
08032X0214           
08032X0222           
08033X0157           
08033X0237           
08035X0008           
08035X0013           
08035X0425           
08035X0441           
08035X0442           
08035X0444           
08036X0015           
08036X0948           
08036X0954           
08036X2484           
08037X0015           
08037X0021           
08037X0169           
08037X0398           
08037X0425           
08038X0236           
08042X0034           
08043X0008           
08046X0005           
08047X0042           
08047X0050           
08048X0044           
08048X0048           
08051X0001           
08054X0011           
08055X0015           
08057X0002           
08057X0013           
08057X0030           
08058X0013           
08061X0007           
08062X0012           
08062X0020           
08063X0012           
08063X0014           
08065X0025           
08066X0003           
08066X0043           
08066X0045           
08066X0049           
08067X0003           
08067X0017           
08071X0020           
08071X0024           
08071X0026           
08072X0011           
08075X0001           
08075X0013           
08075X0014           
08078X0028           
08081X0026           
08082X0008           
08082X0009           
08082X0010           
08083X0027           
08083X0028           
08085X0046           
08087X0021           
08087X0022           
08253X0010           
08253X0011           
08253X0012           
08254X0011           
08254X0012           
08258X0005           
08261X0030           
08262X0023           
08262X0096           
08262X0290           
08264X0004           
08264X0012           
08264X0086           
08265X0001           
08266X0003           
08266X0061           
08266X0136           
08267X0014           
08268X0020           
08268X0021           
08271X0002           
08271X0003           
08271X0106           
08271X0213           
08271X0255           
08271X0298           
08271X0299           
08272X0056           
08272X0132           
08272X0136           
08272X0337           
08272X0391           
08272X0463           
08272X0487           
08272X0500           
08273X0288           
08274X0019           
08275X0025           
08275X0067           
08275X0068           
08275X0070           
08275X0085           
08276X0006           
08276X0085           
08276X0091           
08277X0005           
08277X0124           
08277X0152           
08277X0157           
08277X0163           
08277X0223           
08278X0127           
08278X0128           
08278X0192           
08282X0029           
08284X0011           
08287X0015           
08288X0003           
08288X0004           
08291X0001           
08293X0001           
08294X0001           
08294X0014           
08296X0001           
08297X0001           
08297X0004           
08301X0002           
08302X0011           
08302X0012           
08303X0001           
08304X0001           
08304X0018           
08304X0019           
08305X0001           
08305X0002           
08305X0030           
08308X0006           
08311X0018           
08311X0020           
08316X0017           
08318X0010           
08327X0203           
08327X0204           
08327X0205           
08493X0045           
08494X0056           
08494X0077           
08501X0001           
08501X0004           
08502X0069           
08502X0079           
08502X0104           
08502X0105           
08503X0010           
08504X0004           
08507X0013           
08507X0132           
08511X0036           
08512X0001           
08512X0002           
08512X0019           
08512X0022           
08512X0044           
08515X0049           
08515X0052           
08516X0002           
08517X0018           
08518X0002           
08518X0026           
08521X0018           
08521X0238           
08521X0239           
08522X0017           
08523X0095           
08524X0018           
08525X0028           
08525X0029           
08526X0003           
08527X0001           
08527X0002           
08531X0002           
08534X0002           
08535X0020           
08537X0001           
08541X0001           
08541X0009           
08542X0002           
08546X0001           
08548X0001           
08555X0002           
08555X0006           
08556X0004           
08561X0203           
08744X0005           
08748X0014           
08752X0055           
08753X0010           
08754X0028           
08757X0058           
08757X0120           
08758X0008           
08762X0018           
08763X0002           
08764X0003           
08764X0004           
08764X0005           
08766X0001           
08766X0018           
08767X0002           
08773X0011           
08774X0001           
08774X0018           
08774X0021           
08776X0003           
08781X0001           
08785X0002           
08785X0010           
08786X0003           
08788X0003           
08792X0015           
08794X0004           
08797X0205           
08997X0016           
08998X0017           
09001X0113           
09006X0041           
09006X0049           
09006X0073           
09015X0003           
09021X0012           
09021X0013           
09022X0009           
09023X0001           
09023X0016           
09023X0017           
09023X0018           
09023X0019           
09024X0002           
09027X0042           
09032X0001           
09042X0001           
09244X0025           
09247X0112           
09248X0050           
09251X0029           
09252X0018           
09254X0040           
09256X0015           
09257X0010           
09258X0004           
09258X0023           
09262X0021           
09264X0044           
09265X0036           
09268X0211           
09273X0205           
09505X0018           
09512X0028           
09513X0025           
09514X0035           
09514X0051           
09515X0031           
09515X0032           
09516X0029           
09517X0013           
09521X0013           
09526X0090           
* observation data
loc01n001             -9.9990000000E+03     0.0000000000E+00       07065X0002           
loc01n002             -9.9990000000E+03     0.0000000000E+00       07065X0002           
loc01n003             -9.9990000000E+03     0.0000000000E+00       07065X0002           
loc01n004             -9.9990000000E+03     0.0000000000E+00       07065X0002           
loc01n005             -9.9990000000E+03     0.0000000000E+00       07065X0002           
loc01n006             -9.9990000000E+03     0.0000000000E+00       07065X0002           
loc01n007             -9.9990000000E+03     0.0000000000E+00       07065X0002           
loc01n008             -9.9990000000E+03     0.0000000000E+00       07065X0002           
loc01n009             -9.9990000000E+03     0.0000000000E+00       07065X0002           
loc01n010             -9.9990000000E+03     0.0000000000E+00       07065X0002           
loc01n011             -9.9990000000E+03     0.0000000000E+00       07065X0002           
loc01n012             -9.9990000000E+03     0.0000000000E+00       07065X0002           
loc01n013             1.1400000000E+00      5.2389524008E-03       07065X0002           
loc01n014             -9.9990000000E+03     0.0000000000E+00       07065X0002           
loc01n015             -9.9990000000E+03     0.0000000000E+00       07065X0002           
loc01n016             -9.9990000000E+03     0.0000000000E+00       07065X0002           
loc01n017             -9.9990000000E+03     0.0000000000E+00       07065X0002           
loc01n018             -9.9990000000E+03     0.0000000000E+00       07065X0002           
loc01n019             -9.9990000000E+03     0.0000000000E+00       07065X0002           
loc01n020             -9.9990000000E+03     0.0000000000E+00       07065X0002           
loc01n021             -9.9990000000E+03     0.0000000000E+00       07065X0002           
loc01n022             -9.9990000000E+03     0.0000000000E+00       07065X0002           
loc01n023             -9.9990000000E+03     0.0000000000E+00       07065X0002           
loc01n024             -9.9990000000E+03     0.0000000000E+00       07065X0002           
loc01n025             1.2900000000E+01      5.2389524008E-03       07065X0002           
loc01n026             -9.9990000000E+03     0.0000000000E+00       07065X0002           
loc01n027             1.3350000000E+01      5.2389524008E-03       07065X0002           
loc01n028             1.4400000000E+01      5.2389524008E-03       07065X0002           
loc01n029             1.7320000000E+01      5.2389524008E-03       07065X0002           
loc01n030             1.6200000000E+01      5.2389524008E-03       07065X0002           
loc01n031             1.6400000000E+01      5.2389524008E-03       07065X0002           
loc01n032             -9.9990000000E+03     0.0000000000E+00       07065X0002           
loc01n033             1.6800000000E+01      5.2389524008E-03       07065X0002           
loc01n034             1.8100000000E+01      5.2389524008E-03       07065X0002           
loc01n035             1.6110000000E+01      5.2389524008E-03       07065X0002           
loc01n036             1.9830000000E+01      5.2389524008E-03       07065X0002           
loc01n037             1.6460000000E+01      5.2389524008E-03       07065X0002           
loc01n038             1.6130000000E+01      5.2389524008E-03       07065X0002           
loc01n039             1.6290000000E+01      5.2389524008E-03       07065X0002           
loc01n040             1.6210000000E+01      5.2389524008E-03       07065X0002           
loc02n001             -9.9990000000E+03     0.0000000000E+00       07074X0014           
loc02n002             -9.9990000000E+03     0.0000000000E+00       07074X0014           
loc02n003             -9.9990000000E+03     0.0000000000E+00       07074X0014           
loc02n004             -9.9990000000E+03     0.0000000000E+00       07074X0014           
loc02n005             -9.9990000000E+03     0.0000000000E+00       07074X0014           
loc02n006             -9.9990000000E+03     0.0000000000E+00       07074X0014           
loc02n007             -9.9990000000E+03     0.0000000000E+00       07074X0014           
loc02n008             -9.9990000000E+03     0.0000000000E+00       07074X0014           
loc02n009             -9.9990000000E+03     0.0000000000E+00       07074X0014           
loc02n010             -9.9990000000E+03     0.0000000000E+00       07074X0014           
loc02n011             -9.9990000000E+03     0.0000000000E+00       07074X0014           
loc02n012             -9.9990000000E+03     0.0000000000E+00       07074X0014           
loc02n013             -9.9990000000E+03     0.0000000000E+00       07074X0014           
loc02n014             -9.9990000000E+03     0.0000000000E+00       07074X0014           
loc02n015             -9.9990000000E+03     0.0000000000E+00       07074X0014           
loc02n016             -9.9990000000E+03     0.0000000000E+00       07074X0014           
loc02n017             -9.9990000000E+03     0.0000000000E+00       07074X0014           
loc02n018             -9.9990000000E+03     0.0000000000E+00       07074X0014           
loc02n019             -9.9990000000E+03     0.0000000000E+00       07074X0014           
loc02n020             -9.9990000000E+03     0.0000000000E+00       07074X0014           
loc02n021             4.3595121951E+00      7.2733026633E+00       07074X0014           
loc02n022             4.1546027397E+00      1.4252084155E+01       07074X0014           
loc02n023             4.5792602740E+00      1.0252269408E+01       07074X0014           
loc02n024             4.0921095890E+00      1.0198851104E+01       07074X0014           
loc02n025             3.9980327869E+00      1.3159481635E+01       07074X0014           
loc02n026             4.0571780822E+00      1.5646603236E+01       07074X0014           
loc02n027             4.1283287671E+00      1.2587235231E+01       07074X0014           
loc02n028             4.0918904110E+00      1.4927486226E+01       07074X0014           
loc02n029             4.5836612022E+00      1.0086007864E+01       07074X0014           
loc02n030             4.4003013699E+00      9.6968636515E+00       07074X0014           
loc02n031             3.8698356164E+00      1.8107370129E+01       07074X0014           
loc02n032             3.9350410959E+00      1.3850371492E+01       07074X0014           
loc02n033             3.8887158470E+00      1.4183422904E+01       07074X0014           
loc02n034             3.5740000000E+00      1.6999258103E+01       07074X0014           
loc02n035             4.0086301370E+00      1.3701497499E+01       07074X0014           
loc02n036             4.2020273973E+00      1.4713142458E+01       07074X0014           
loc02n037             4.1974316940E+00      1.6918839322E+01       07074X0014           
loc02n038             3.9300547945E+00      1.4812353847E+01       07074X0014           
loc02n039             4.0425690608E+00      1.3700456596E+01       07074X0014           
loc02n040             3.7073698630E+00      1.4291539113E+01       07074X0014           
loc03n001             -9.9990000000E+03     0.0000000000E+00       07077X0023           
loc03n002             -9.9990000000E+03     0.0000000000E+00       07077X0023           
loc03n003             -9.9990000000E+03     0.0000000000E+00       07077X0023           
loc03n004             -9.9990000000E+03     0.0000000000E+00       07077X0023           
loc03n005             -9.9990000000E+03     0.0000000000E+00       07077X0023           
loc03n006             -9.9990000000E+03     0.0000000000E+00       07077X0023           
loc03n007             -9.9990000000E+03     0.0000000000E+00       07077X0023           
loc03n008             -9.9990000000E+03     0.0000000000E+00       07077X0023           
loc03n009             -9.9990000000E+03     0.0000000000E+00       07077X0023           
loc03n010             -9.9990000000E+03     0.0000000000E+00       07077X0023           
loc03n011             -9.9990000000E+03     0.0000000000E+00       07077X0023           
loc03n012             -9.9990000000E+03     0.0000000000E+00       07077X0023           
loc03n013             -9.9990000000E+03     0.0000000000E+00       07077X0023           
loc03n014             -9.9990000000E+03     0.0000000000E+00       07077X0023           
loc03n015             -9.9990000000E+03     0.0000000000E+00       07077X0023           
loc03n016             -9.9990000000E+03     0.0000000000E+00       07077X0023           
loc03n017             -9.9990000000E+03     0.0000000000E+00       07077X0023           
loc03n018             -9.9990000000E+03     0.0000000000E+00       07077X0023           
loc03n019             -9.9990000000E+03     0.0000000000E+00       07077X0023           
loc03n020             -9.9990000000E+03     0.0000000000E+00       07077X0023           
loc03n021             -9.9990000000E+03     0.0000000000E+00       07077X0023           
loc03n022             1.6220185185E+01      5.5101830442E+00       07077X0023           
loc03n023             1.4988219178E+01      4.2813172685E+00       07077X0023           
loc03n024             1.3119834254E+01      3.7180231561E+00       07077X0023           
loc03n025             1.2679781421E+01      5.3892260788E+00       07077X0023           
loc03n026             1.2817479452E+01      7.5810048827E+00       07077X0023           
loc03n027             1.3176904110E+01      5.1046464370E+00       07077X0023           
loc03n028             1.3417397260E+01      7.4242064350E+00       07077X0023           
loc03n029             1.3903415301E+01      4.0956119350E+00       07077X0023           
loc03n030             1.3468712329E+01      5.1599301833E+00       07077X0023           
loc03n031             1.2430657534E+01      1.1210059521E+01       07077X0023           
loc03n032             1.2667321429E+01      5.1514749195E+00       07077X0023           
loc03n033             1.2569863388E+01      6.4390484892E+00       07077X0023           
loc03n034             1.1761315068E+01      9.3510461220E+00       07077X0023           
loc03n035             1.2779780822E+01      6.1860554273E+00       07077X0023           
loc03n036             1.2965178082E+01      7.3963877109E+00       07077X0023           
loc03n037             1.3209890710E+01      9.1445597906E+00       07077X0023           
loc03n038             1.2760767123E+01      7.7603559473E+00       07077X0023           
loc03n039             1.2887945205E+01      6.1955199536E+00       07077X0023           
loc03n040             1.1831178082E+01      7.4699765773E+00       07077X0023           
loc04n001             -9.9990000000E+03     0.0000000000E+00       07095X0117           
loc04n002             -9.9990000000E+03     0.0000000000E+00       07095X0117           
loc04n003             -9.9990000000E+03     0.0000000000E+00       07095X0117           
loc04n004             -9.9990000000E+03     0.0000000000E+00       07095X0117           
loc04n005             -9.9990000000E+03     0.0000000000E+00       07095X0117           
loc04n006             -9.9990000000E+03     0.0000000000E+00       07095X0117           
loc04n007             -9.9990000000E+03     0.0000000000E+00       07095X0117           
loc04n008             -9.9990000000E+03     0.0000000000E+00       07095X0117           
loc04n009             -9.9990000000E+03     0.0000000000E+00       07095X0117           
loc04n010             -9.9990000000E+03     0.0000000000E+00       07095X0117           
loc04n011             -9.9990000000E+03     0.0000000000E+00       07095X0117           
loc04n012             -9.9990000000E+03     0.0000000000E+00       07095X0117           
loc04n013             -9.9990000000E+03     0.0000000000E+00       07095X0117           
loc04n014             -9.9990000000E+03     0.0000000000E+00       07095X0117           
loc04n015             -9.9990000000E+03     0.0000000000E+00       07095X0117           
loc04n016             -9.9990000000E+03     0.0000000000E+00       07095X0117           
loc04n017             -9.9990000000E+03     0.0000000000E+00       07095X0117           
loc04n018             -9.9990000000E+03     0.0000000000E+00       07095X0117           
loc04n019             -9.9990000000E+03     0.0000000000E+00       07095X0117           
loc04n020             -9.9990000000E+03     0.0000000000E+00       07095X0117           
loc04n021             -9.9990000000E+03     0.0000000000E+00       07095X0117           
loc04n022             -9.9990000000E+03     0.0000000000E+00       07095X0117           
loc04n023             -9.9990000000E+03     0.0000000000E+00       07095X0117           
loc04n024             -9.9990000000E+03     0.0000000000E+00       07095X0117           
loc04n025             -9.9990000000E+03     0.0000000000E+00       07095X0117           
loc04n026             -9.9990000000E+03     0.0000000000E+00       07095X0117           
loc04n027             -9.9990000000E+03     0.0000000000E+00       07095X0117           
loc04n028             -9.9990000000E+03     0.0000000000E+00       07095X0117           
loc04n029             -9.9990000000E+03     0.0000000000E+00       07095X0117           
loc04n030             8.5281014493E+01      3.4754701146E+01       07095X0117           
loc04n031             8.4910864198E+01      3.5838370230E+01       07095X0117           
loc04n032             8.5063586957E+01      3.6197752244E+01       07095X0117           
loc04n033             8.5295519126E+01      3.3716711576E+01       07095X0117           
loc04n034             8.4710931507E+01      3.6045872352E+01       07095X0117           
loc04n035             8.5175534247E+01      3.2788445044E+01       07095X0117           
loc04n036             8.5465022322E+01      3.3777105432E+01       07095X0117           
loc04n037             8.5497981126E+01      3.4617583821E+01       07095X0117           
loc04n038             8.5468456695E+01      3.4833404157E+01       07095X0117           
loc04n039             8.5547217165E+01      3.4364961346E+01       07095X0117           
loc04n040             8.5161763493E+01      3.3815212636E+01       07095X0117           
loc05n001             -9.9990000000E+03     0.0000000000E+00       07097X0067           
loc05n002             -9.9990000000E+03     0.0000000000E+00       07097X0067           
loc05n003             -9.9990000000E+03     0.0000000000E+00       07097X0067           
loc05n004             -9.9990000000E+03     0.0000000000E+00       07097X0067           
loc05n005             -9.9990000000E+03     0.0000000000E+00       07097X0067           
loc05n006             -9.9990000000E+03     0.0000000000E+00       07097X0067           
loc05n007             -9.9990000000E+03     0.0000000000E+00       07097X0067           
loc05n008             -9.9990000000E+03     0.0000000000E+00       07097X0067           
loc05n009             -9.9990000000E+03     0.0000000000E+00       07097X0067           
loc05n010             -9.9990000000E+03     0.0000000000E+00       07097X0067           
loc05n011             -9.9990000000E+03     0.0000000000E+00       07097X0067           
loc05n012             -9.9990000000E+03     0.0000000000E+00       07097X0067           
loc05n013             -9.9990000000E+03     0.0000000000E+00       07097X0067           
loc05n014             -9.9990000000E+03     0.0000000000E+00       07097X0067           
loc05n015             -9.9990000000E+03     0.0000000000E+00       07097X0067           
loc05n016             -9.9990000000E+03     0.0000000000E+00       07097X0067           
loc05n017             -9.9990000000E+03     0.0000000000E+00       07097X0067           
loc05n018             -9.9990000000E+03     0.0000000000E+00       07097X0067           
loc05n019             -9.9990000000E+03     0.0000000000E+00       07097X0067           
loc05n020             -9.9990000000E+03     0.0000000000E+00       07097X0067           
loc05n021             -9.9990000000E+03     0.0000000000E+00       07097X0067           
loc05n022             1.4407955056E+02      8.2037597353E-02       07097X0067           
loc05n023             1.4717975845E+02      1.6849251945E+00       07097X0067           
loc05n024             1.4373383562E+02      1.1485488733E+00       07097X0067           