pcf
* control data
             restart          estimation
        15        40         1         0         1         0
         1         1              single               point         1         0         0          noobsreref
   2.000000E+01  -3.000000E+00   3.000000E-01   1.000000E-02        -7       999          lamforgive        noderforgive
   1.000000E+01   1.000000E+01   1.000000E-03         0         0
   1.000000E-01         1   1.100000E+00               noaui          nosenreuse        noboundscale
        30   1.000000E-02         3         3   1.000000E-02         3   0.000000E+00         1  -1.000000E+00
         0         0         0         0             jcosave          verboserec          jcosaveitn          reisaveitn          parsaveitn        noparsaverun
* singular value decomposition
         1
  10000000    1.000000E-06
1
* parameter groups
kepon                   relative              1.0000000000E-02       0.0  switch                2.0000000000E+00       parabolic             1.0000000000E-05      5.0000000000E-01       smaller
* parameter data
kepon_l01_zpc01        log                    factor                1.0000000000E-06      1.1000000000E-10      1.1000000000E+10       kepon                 1.0000000000E+00      0.0000000000E+00      1          
kepon_l02_zpc01        log                    factor                1.0000000000E-06      1.1000000000E-10      1.1000000000E+10       kepon                 1.0000000000E+00      0.0000000000E+00      1          
kepon_l03_zpc01        log                    factor                1.0000000000E-06      1.1000000000E-10      1.1000000000E+10       kepon                 1.0000000000E+00      0.0000000000E+00      1          
kepon_l04_zpc01        log                    factor                1.0000000000E-06      1.1000000000E-10      1.1000000000E+10       kepon                 1.0000000000E+00      0.0000000000E+00      1          
kepon_l05_zpc01        log                    factor                1.0000000000E-06      1.1000000000E-10      1.1000000000E+10       kepon                 1.0000000000E+00      0.0000000000E+00      1          
kepon_l06_zpc01        log                    factor                1.0000000000E-06      1.1000000000E-10      1.1000000000E+10       kepon                 1.0000000000E+00      0.0000000000E+00      1          
kepon_l07_zpc01        log                    factor                1.0000000000E-06      1.1000000000E-10      1.1000000000E+10       kepon                 1.0000000000E+00      0.0000000000E+00      1          
kepon_l08_zpc01        log                    factor                1.0000000000E-06      1.1000000000E-10      1.1000000000E+10       kepon                 1.0000000000E+00      0.0000000000E+00      1          
kepon_l09_zpc01        log                    factor                1.0000000000E-06      1.1000000000E-10      1.1000000000E+10       kepon                 1.0000000000E+00      0.0000000000E+00      1          
kepon_l10_zpc01        log                    factor                1.0000000000E-06      1.1000000000E-10      1.1000000000E+10       kepon                 1.0000000000E+00      0.0000000000E+00      1          
kepon_l11_zpc01        log                    factor                1.0000000000E-06      1.1000000000E-10      1.1000000000E+10       kepon                 1.0000000000E+00      0.0000000000E+00      1          
kepon_l12_zpc01        log                    factor                1.0000000000E-06      1.1000000000E-10      1.1000000000E+10       kepon                 1.0000000000E+00      0.0000000000E+00      1          
kepon_l13_zpc01        log                    factor                1.0000000000E-06      1.1000000000E-10      1.1000000000E+10       kepon                 1.0000000000E+00      0.0000000000E+00      1          
kepon_l14_zpc01        log                    factor                1.0000000000E-06      1.1000000000E-10      1.1000000000E+10       kepon                 1.0000000000E+00      0.0000000000E+00      1          
kepon_l15_zpc01        log                    factor                1.0000000000E-06      1.1000000000E-10      1.1000000000E+10       kepon                 1.0000000000E+00      0.0000000000E+00      1
* observation groups
07065X0002           
* observation data
loc01nn001            -9.9990000000E+03     0.0000000000E+00       07065X0002           
loc01nn002            -9.9990000000E+03     0.0000000000E+00       07065X0002           
loc01nn003            -9.9990000000E+03     0.0000000000E+00       07065X0002           
loc01nn004            -9.9990000000E+03     0.0000000000E+00       07065X0002           
loc01nn005            -9.9990000000E+03     0.0000000000E+00       07065X0002           
loc01nn006            -9.9990000000E+03     0.0000000000E+00       07065X0002           
loc01nn007            -9.9990000000E+03     0.0000000000E+00       07065X0002           
loc01nn008            -9.9990000000E+03     0.0000000000E+00       07065X0002           
loc01nn009            -9.9990000000E+03     0.0000000000E+00       07065X0002           
loc01nn010            -9.9990000000E+03     0.0000000000E+00       07065X0002           
loc01nn011            -9.9990000000E+03     0.0000000000E+00       07065X0002           
loc01nn012            -9.9990000000E+03     0.0000000000E+00       07065X0002           
loc01nn013            1.1400000000E+00      4.6226050595E-03       07065X0002           
loc01nn014            -9.9990000000E+03     0.0000000000E+00       07065X0002           
loc01nn015            -9.9990000000E+03     0.0000000000E+00       07065X0002           
loc01nn016            -9.9990000000E+03     0.0000000000E+00       07065X0002           
loc01nn017            -9.9990000000E+03     0.0000000000E+00       07065X0002           
loc01nn018            -9.9990000000E+03     0.0000000000E+00       07065X0002           
loc01nn019            -9.9990000000E+03     0.0000000000E+00       07065X0002           
loc01nn020            -9.9990000000E+03     0.0000000000E+00       07065X0002           
loc01nn021            -9.9990000000E+03     0.0000000000E+00       07065X0002           
loc01nn022            -9.9990000000E+03     0.0000000000E+00       07065X0002           
loc01nn023            -9.9990000000E+03     0.0000000000E+00       07065X0002           
loc01nn024            -9.9990000000E+03     0.0000000000E+00       07065X0002           
loc01nn025            1.2900000000E+01      4.6226050595E-03       07065X0002           
loc01nn026            -9.9990000000E+03     0.0000000000E+00       07065X0002           
loc01nn027            1.3350000000E+01      4.6226050595E-03       07065X0002           
loc01nn028            1.4400000000E+01      4.6226050595E-03       07065X0002           
loc01nn029            1.7320000000E+01      4.6226050595E-03       07065X0002           
loc01nn030            1.6200000000E+01      4.6226050595E-03       07065X0002           
loc01nn031            1.6400000000E+01      4.6226050595E-03       07065X0002           
loc01nn032            -9.9990000000E+03     0.0000000000E+00       07065X0002           
loc01nn033            1.6800000000E+01      4.6226050595E-03       07065X0002           
loc01nn034            1.8100000000E+01      4.6226050595E-03       07065X0002           
loc01nn035            1.6110000000E+01      4.6226050595E-03       07065X0002           
loc01nn036            1.9830000000E+01      4.6226050595E-03       07065X0002           
loc01nn037            1.6460000000E+01      4.6226050595E-03       07065X0002           
loc01nn038            1.6130000000E+01      4.6226050595E-03       07065X0002           
loc01nn039            1.6290000000E+01      4.6226050595E-03       07065X0002           
loc01nn040            1.6210000000E+01      4.6226050595E-03       07065X0002
* model command line
model.bat
* model input/output
./tpl/kepon_zpc.tpl ./param/kepon_zpc.dat
./ins/07065X0002.ins ./sim/08023X0044.dat
