pcf
* control data
             restart          estimation
        60     16920         1         0       423         0
         4       423              single               point         1         0         0          noobsreref
   2.000000E+01  -3.000000E+00   3.000000E-01   1.000000E-02        -7       999          lamforgive        noderforgive
   1.000000E+01   1.000000E+01   1.000000E-03         0         0
   1.000000E-01         1   1.100000E+00               noaui          nosenreuse        noboundscale
        0   1.000000E-02         3         3   1.000000E-02         3   0.000000E+00         1  -1.000000E+00
         0         0         0         0             jcosave          verboserec          jcosaveitn          reisaveitn          parsaveitn        noparsaverun
* singular value decomposition
         1
  10000000    1.000000E-06
1
* parameter groups
pargp                   relative              1.0000000000E-02       0.0  switch                2.0000000000E+00       parabolic             1.0000000000E-05      5.0000000000E-01       smaller
* parameter data
emmca_l01_zpc01        log                    factor                1.0000000000E+00      1.1000000000E-10      1.1000000000E+10       pargp                 1.0000000000E+00      0.0000000000E+00      1          
emmca_l02_zpc01        log                    factor                1.0000000000E+00      1.1000000000E-10      1.1000000000E+10       pargp                 1.0000000000E+00      0.0000000000E+00      1          
emmca_l03_zpc01        log                    factor                1.0000000000E+00      1.1000000000E-10      1.1000000000E+10       pargp                 1.0000000000E+00      0.0000000000E+00      1          
emmca_l04_zpc01        log                    factor                1.0000000000E+00      1.1000000000E-10      1.1000000000E+10       pargp                 1.0000000000E+00      0.0000000000E+00      1          
emmca_l05_zpc01        log                    factor                1.0000000000E+00      1.1000000000E-10      1.1000000000E+10       pargp                 1.0000000000E+00      0.0000000000E+00      1          
emmca_l06_zpc01        log                    factor                1.0000000000E+00      1.1000000000E-10      1.1000000000E+10       pargp                 1.0000000000E+00      0.0000000000E+00      1          
emmca_l07_zpc01        log                    factor                1.0000000000E+00      1.1000000000E-10      1.1000000000E+10       pargp                 1.0000000000E+00      0.0000000000E+00      1          
emmca_l08_zpc01        log                    factor                1.0000000000E+00      1.1000000000E-10      1.1000000000E+10       pargp                 1.0000000000E+00      0.0000000000E+00      1          
emmca_l09_zpc01        log                    factor                1.0000000000E+00      1.1000000000E-10      1.1000000000E+10       pargp                 1.0000000000E+00      0.0000000000E+00      1          
emmca_l10_zpc01        log                    factor                1.0000000000E+00      1.1000000000E-10      1.1000000000E+10       pargp                 1.0000000000E+00      0.0000000000E+00      1          
emmca_l11_zpc01        log                    factor                1.0000000000E+00      1.1000000000E-10      1.1000000000E+10       pargp                 1.0000000000E+00      0.0000000000E+00      1          
emmca_l12_zpc01        log                    factor                1.0000000000E+00      1.1000000000E-10      1.1000000000E+10       pargp                 1.0000000000E+00      0.0000000000E+00      1          
emmca_l13_zpc01        log                    factor                1.0000000000E+00      1.1000000000E-10      1.1000000000E+10       pargp                 1.0000000000E+00      0.0000000000E+00      1          
emmca_l14_zpc01        log                    factor                1.0000000000E+00      1.1000000000E-10      1.1000000000E+10       pargp                 1.0000000000E+00      0.0000000000E+00      1          
emmca_l15_zpc01        log                    factor                1.0000000000E+00      1.1000000000E-10      1.1000000000E+10       pargp                 1.0000000000E+00      0.0000000000E+00      1          
emmli_l01_zpc01        log                    factor                1.0000000000E+00      1.1000000000E-10      1.1000000000E+10       pargp                 1.0000000000E+00      0.0000000000E+00      1          
emmli_l02_zpc01        log                    factor                1.0000000000E+00      1.1000000000E-10      1.1000000000E+10       pargp                 1.0000000000E+00      0.0000000000E+00      1          
emmli_l03_zpc01        log                    factor                1.0000000000E+00      1.1000000000E-10      1.1000000000E+10       pargp                 1.0000000000E+00      0.0000000000E+00      1          
emmli_l04_zpc01        log                    factor                1.0000000000E+00      1.1000000000E-10      1.1000000000E+10       pargp                 1.0000000000E+00      0.0000000000E+00      1          
emmli_l05_zpc01        log                    factor                1.0000000000E+00      1.1000000000E-10      1.1000000000E+10       pargp                 1.0000000000E+00      0.0000000000E+00      1          
emmli_l06_zpc01        log                    factor                1.0000000000E+00      1.1000000000E-10      1.1000000000E+10       pargp                 1.0000000000E+00      0.0000000000E+00      1          
emmli_l07_zpc01        log                    factor                1.0000000000E+00      1.1000000000E-10      1.1000000000E+10       pargp                 1.0000000000E+00      0.0000000000E+00      1          
emmli_l08_zpc01        log                    factor                1.0000000000E+00      1.1000000000E-10      1.1000000000E+10       pargp                 1.0000000000E+00      0.0000000000E+00      1          
emmli_l09_zpc01        log                    factor                1.0000000000E+00      1.1000000000E-10      1.1000000000E+10       pargp                 1.0000000000E+00      0.0000000000E+00      1          
emmli_l10_zpc01        log                    factor                1.0000000000E+00      1.1000000000E-10      1.1000000000E+10       pargp                 1.0000000000E+00      0.0000000000E+00      1          
emmli_l11_zpc01        log                    factor                1.0000000000E+00      1.1000000000E-10      1.1000000000E+10       pargp                 1.0000000000E+00      0.0000000000E+00      1          
emmli_l12_zpc01        log                    factor                1.0000000000E+00      1.1000000000E-10      1.1000000000E+10       pargp                 1.0000000000E+00      0.0000000000E+00      1          
emmli_l13_zpc01        log                    factor                1.0000000000E+00      1.1000000000E-10      1.1000000000E+10       pargp                 1.0000000000E+00      0.0000000000E+00      1          
emmli_l14_zpc01        log                    factor                1.0000000000E+00      1.1000000000E-10      1.1000000000E+10       pargp                 1.0000000000E+00      0.0000000000E+00      1          
emmli_l15_zpc01        log                    factor                1.0000000000E+00      1.1000000000E-10      1.1000000000E+10       pargp                 1.0000000000E+00      0.0000000000E+00      1          
kepon_l01_zpc01        fixed                  factor                1.0000000000E+00      0.0000000000E+00      1.1000000000E+10       pargp                 1.0000000000E+00      0.0000000000E+00      1          
kepon_l02_zpc01        log                    factor                1.0000000000E+00      1.1000000000E-10      1.1000000000E+10       pargp                 1.0000000000E+00      0.0000000000E+00      1          
kepon_l03_zpc01        log                    factor                1.0000000000E+00      1.1000000000E-10      1.1000000000E+10       pargp                 1.0000000000E+00      0.0000000000E+00      1          
kepon_l04_zpc01        log                    factor                1.0000000000E+00      1.1000000000E-10      1.1000000000E+10       pargp                 1.0000000000E+00      0.0000000000E+00      1          
kepon_l05_zpc01        log                    factor                1.0000000000E+00      1.1000000000E-10      1.1000000000E+10       pargp                 1.0000000000E+00      0.0000000000E+00      1          
kepon_l06_zpc01        log                    factor                1.0000000000E+00      1.1000000000E-10      1.1000000000E+10       pargp                 1.0000000000E+00      0.0000000000E+00      1          
kepon_l07_zpc01        log                    factor                1.0000000000E+00      1.1000000000E-10      1.1000000000E+10       pargp                 1.0000000000E+00      0.0000000000E+00      1          
kepon_l08_zpc01        log                    factor                1.0000000000E+00      1.1000000000E-10      1.1000000000E+10       pargp                 1.0000000000E+00      0.0000000000E+00      1          
kepon_l09_zpc01        log                    factor                1.0000000000E+00      1.1000000000E-10      1.1000000000E+10       pargp                 1.0000000000E+00      0.0000000000E+00      1          
kepon_l10_zpc01        log                    factor                1.0000000000E+00      1.1000000000E-10      1.1000000000E+10       pargp                 1.0000000000E+00      0.0000000000E+00      1          
kepon_l11_zpc01        log                    factor                1.0000000000E+00      1.1000000000E-10      1.1000000000E+10       pargp                 1.0000000000E+00      0.0000000000E+00      1          
kepon_l12_zpc01        log                    factor                1.0000000000E+00      1.1000000000E-10      1.1000000000E+10       pargp                 1.0000000000E+00      0.0000000000E+00      1          
kepon_l13_zpc01        log                    factor                1.0000000000E+00      1.1000000000E-10      1.1000000000E+10       pargp                 1.0000000000E+00      0.0000000000E+00      1          
kepon_l14_zpc01        log                    factor                1.0000000000E+00      1.1000000000E-10      1.1000000000E+10       pargp                 1.0000000000E+00      0.0000000000E+00      1          
kepon_l15_zpc01        log                    factor                1.0000000000E+00      1.1000000000E-10      1.1000000000E+10       pargp                 1.0000000000E+00      0.0000000000E+00      1          
permh_l01_zpc01        log                    factor                1.0000000000E+00      1.1000000000E-10      1.1000000000E+10       pargp                 1.0000000000E+00      0.0000000000E+00      1          
permh_l02_zpc01        log                    factor                1.0000000000E+00      1.1000000000E-10      1.1000000000E+10       pargp                 1.0000000000E+00      0.0000000000E+00      1          
permh_l03_zpc01        log                    factor                1.0000000000E+00      1.1000000000E-10      1.1000000000E+10       pargp                 1.0000000000E+00      0.0000000000E+00      1          
permh_l04_zpc01        log                    factor                1.0000000000E+00      1.1000000000E-10      1.1000000000E+10       pargp                 1.0000000000E+00      0.0000000000E+00      1          
permh_l05_zpc01        log                    factor                1.0000000000E+00      1.1000000000E-10      1.1000000000E+10       pargp                 1.0000000000E+00      0.0000000000E+00      1          
permh_l06_zpc01        log                    factor                1.0000000000E+00      1.1000000000E-10      1.1000000000E+10       pargp                 1.0000000000E+00      0.0000000000E+00      1          
permh_l07_zpc01        log                    factor                1.0000000000E+00      1.1000000000E-10      1.1000000000E+10       pargp                 1.0000000000E+00      0.0000000000E+00      1          
permh_l08_zpc01        log                    factor                1.0000000000E+00      1.1000000000E-10      1.1000000000E+10       pargp                 1.0000000000E+00      0.0000000000E+00      1          
permh_l09_zpc01        log                    factor                1.0000000000E+00      1.1000000000E-10      1.1000000000E+10       pargp                 1.0000000000E+00      0.0000000000E+00      1          
permh_l10_zpc01        log                    factor                1.0000000000E+00      1.1000000000E-10      1.1000000000E+10       pargp                 1.0000000000E+00      0.0000000000E+00      1          
permh_l11_zpc01        log                    factor                1.0000000000E+00      1.1000000000E-10      1.1000000000E+10       pargp                 1.0000000000E+00      0.0000000000E+00      1          
permh_l12_zpc01        log                    factor                1.0000000000E+00      1.1000000000E-10      1.1000000000E+10       pargp                 1.0000000000E+00      0.0000000000E+00      1          
permh_l13_zpc01        log                    factor                1.0000000000E+00      1.1000000000E-10      1.1000000000E+10       pargp                 1.0000000000E+00      0.0000000000E+00      1          
permh_l14_zpc01        log                    factor                1.0000000000E+00      1.1000000000E-10      1.1000000000E+10       pargp                 1.0000000000E+00      0.0000000000E+00      1          
permh_l15_zpc01        log                    factor                1.0000000000E+00      1.1000000000E-10      1.1000000000E+10       pargp                 1.0000000000E+00      0.0000000000E+00      1
* observation groups
08062X0020           
07294X0012           
08018X0004           
07783X0008           
08268X0021           
08276X0085           
08316X0017           
07341X0007           
08792X0015           
08022X0013           
07294X0002           
08525X0028           
08327X0204           
08527X0002           
08033X0157           
08046X0005           
08752X0055           
07548X0009           
08501X0001           
08774X0018           
07355X0006           
08277X0223           
08035X0008           
08294X0014           
07538X0009           
08254X0011           
08022X0008           
07355X0007           
08546X0001           
07545X0001           
08035X0425           
08277X0157           
08048X0044           
08271X0106           
07597X0006           
08502X0104           
08758X0008           
08065X0025           
09258X0004           
07345X0023           
07543X0085           
07298X0015           
07796X0001           
08042X0034           
07811X0011           
08047X0050           
07835X0003           
08753X0010           
08022X0010           
09247X0112           
08028X0176           
07588X0048           
08022X0009           
08058X0013           
08277X0005           
07545X0002           
08032X0222           
08032X0001           
08502X0105           
08271X0213           
08067X0003           
08521X0238           
08517X0018           
08555X0006           
09001X0113           
09015X0003           
09265X0036           
08253X0012           
08264X0086           
08081X0026           
07804X0001           
08287X0015           
08268X0020           
07355X0005           
08327X0203           
08764X0004           
08078X0028           
08082X0008           
08512X0002           
09258X0023           
08531X0002           
07831X0007           
08515X0052           
07306X0066           
08072X0011           
07543X0010           
07074X0014           
08264X0004           
08071X0020           
08026X0036           
08018X0002           
07583X0019           
09021X0013           
08535X0020           
08037X0015           
08055X0015           
07595X0016           
08275X0085           
08262X0096           
08288X0003           
07583X0018           
08512X0022           
08071X0024           
08024X0019           
09244X0025           
07305X0022           
08764X0005           
09252X0018           
07326X0028           
07786X0001           
08262X0290           
09505X0018           
08504X0004           
07803X0505           
08066X0045           
08038X0236           
07304X0007           
08275X0068           
07333X0027           
07786X0087           
07552X0012           
08537X0001           
07555X0071           
08523X0095           
08277X0152           
08302X0011           
07345X0018           
09023X0016           
08036X0948           
08087X0021           
09006X0049           
08075X0014           
09032X0001           
07555X0072           
07791X0002           
08047X0042           
09264X0044           
08037X0425           
08311X0020           
08057X0013           
08327X0205           
09027X0042           
08794X0004           
08507X0013           
08271X0298           
07336X0543           
09256X0015           
08282X0029           
07784X0031           
08781X0001           
09273X0205           
09251X0029           
07298X0017           
08311X0018           
08271X0002           
08275X0070           
08075X0013           
07785X0001           
07835X0014           
07808X0009           
08082X0010           
07348X0015           
08067X0017           
08271X0003           
08521X0239           
07555X0070           
07785X0003           
07595X0006           
07836X0005           
08021X0001           
08308X0006           
07791X0006           
09257X0010           
09023X0001           
08766X0001           
07542X0002           
08063X0012           
08272X0056           
08266X0003           
08797X0205           
08266X0136           
07574X0014           
07828X0020           
09023X0017           
08515X0049           
07796X0069           
08548X0001           
08023X0001           
08764X0003           
08766X0018           
07836X0009           
07305X0036           
07338X0017           
08265X0001           
07796X0045           
07818X0008           
08541X0009           
08293X0001           
07823X0007           
08272X0500           
07807X0002           
08997X0016           
07077X0023           
08036X0954           
08512X0001           
08258X0005           
08066X0003           
08273X0288           
08774X0001           
08271X0299           
07338X0016           
07804X0003           
08023X0039           
07584X0007           
08291X0001           
08036X2484           
08021X0002           
08066X0043           
09513X0025           
08023X0044           
08776X0003           
08493X0045           
07345X0021           
08057X0030           
07818X0009           
08304X0001           
08494X0077           
08062X0012           
08288X0004           
08266X0061           
08511X0036           
07548X0117           
07598X0007           
08277X0163           
08254X0012           
07818X0012           
08261X0030           
09514X0051           
08541X0001           
07588X0045           
08297X0001           
07577X0022           
08253X0011           
07345X0020           
07794X0007           
08561X0203           
09516X0029           
08083X0027           
08267X0014           
08048X0048           
08303X0001           
08518X0002           
08275X0025           
08525X0029           
08026X0034           
08035X0442           
09006X0041           
08534X0002           
07787X0010           
08037X0169           
08032X0211           
08516X0002           
08082X0009           
08051X0001           
08518X0026           
09248X0050           
08043X0008           
08272X0487           
07346X0024           
07807X0004           
09022X0009           
07312X0034           
08033X0237           
09254X0040           
08253X0010           
08037X0398           
07305X0001           
09006X0073           
07778X0002           
08318X0010           
07813X0006           
08275X0067           
08278X0128           
07065X0002           
07584X0002           
08284X0011           
07808X0015           
08757X0120           
08087X0022           
08035X0013           
08522X0017           
08022X0004           
08494X0056           
07818X0030           
09517X0013           
08061X0007           
08767X0002           
08276X0091           
08278X0127           
08035X0444           
08054X0011           
08748X0014           
08277X0124           
08262X0023           
08301X0002           
07834X0012           
09515X0031           
08526X0003           
09514X0035           
07294X0029           
08271X0255           
07095X0117           
07595X0009           
08501X0004           
07332X0530           
09526X0090           
07544X0091           
08296X0001           
08785X0010           
08264X0012           
07833X0007           
08272X0132           
08503X0010           
08066X0049           
08556X0004           
08512X0044           
07336X0002           
08274X0019           
07581X0009           
08304X0018           
08502X0069           
07791X0004           
08762X0018           
07542X0042           
07545X0021           
08305X0001           
08071X0026           
07346X0017           
08272X0337           
07815X0056           
07808X0002           
08527X0001           
08305X0002           
08297X0004           
08757X0058           
09262X0021           
08085X0046           
07555X0030           
07343X0007           
07786X0051           
08774X0021           
07555X0040           
08024X0050           
08036X0015           
07798X0004           
08035X0441           
08278X0192           
07097X0067           
07544X0001           
08786X0003           
07774X0001           
07808X0008           
07788X0037           
08063X0014           
08014X0004           
08785X0002           
07818X0033           
08276X0006           
07298X0001           
07598X0004           
07808X0196           
07556X0083           
09515X0032           
08502X0079           
07347X0004           
08013X0001           
07816X0032           
07598X0005           
07305X0052           
09042X0001           
08037X0021           
08998X0017           
08057X0002           
09024X0002           
08754X0028           
09512X0028           
07561X0006           
07791X0204           
08302X0012           
08555X0002           
08788X0003           
07307X0087           
09023X0019           
07548X0002           
07792X0006           
08032X0214           
08512X0019           
07298X0004           
08014X0032           
08025X0009           
09521X0013           
08305X0030           
08521X0018           
08507X0132           
08304X0019           
08083X0028           
08542X0002           
07822X0011           
07548X0234           
09023X0018           
08744X0005           
08272X0391           
08773X0011           
08272X0136           
08272X0463           
08294X0001           
07778X0033           
08524X0018           
08026X0001           
09021X0012           
09268X0211           
08075X0001           
08763X0002           
* observation data
loc001n0001           -9.9990000000E+03     0.0000000000E+00       08555X0002           
loc001n0002           -9.9990000000E+03     0.0000000000E+00       08555X0002           
loc001n0003           -9.9990000000E+03     0.0000000000E+00       08555X0002           
loc001n0004           -9.9990000000E+03     0.0000000000E+00       08555X0002           
loc001n0005           -9.9990000000E+03     0.0000000000E+00       08555X0002           
loc001n0006           -9.9990000000E+03     0.0000000000E+00       08555X0002           
loc001n0007           -9.9990000000E+03     0.0000000000E+00       08555X0002           
loc001n0008           -9.9990000000E+03     0.0000000000E+00       08555X0002           
loc001n0009           -9.9990000000E+03     0.0000000000E+00       08555X0002           
loc001n0010           -9.9990000000E+03     0.0000000000E+00       08555X0002           
loc001n0011           -9.9990000000E+03     0.0000000000E+00       08555X0002           
loc001n0012           -9.9990000000E+03     0.0000000000E+00       08555X0002           
loc001n0013           -9.9990000000E+03     0.0000000000E+00       08555X0002           
loc001n0014           -9.9990000000E+03     0.0000000000E+00       08555X0002           
loc001n0015           8.6116250000E+01      3.4613304489E+01       08555X0002           
loc001n0016           8.6088888889E+01      3.9154078550E+01       08555X0002           
loc001n0017           8.6021666667E+01      5.3378051514E-03       08555X0002           
loc001n0018           8.4100000000E+01      5.3378051514E-03       08555X0002           
loc001n0019           8.2500000000E+01      5.3378051514E-03       08555X0002           
loc001n0020           8.2500000000E+01      5.3378051514E-03       08555X0002           
loc001n0021           8.2275000000E+01      5.3378051514E-03       08555X0002           
loc001n0022           -9.9990000000E+03     0.0000000000E+00       08555X0002           
loc001n0023           8.2300000000E+01      5.3378051514E-03       08555X0002           
loc001n0024           8.4110000000E+01      5.3378051514E-03       08555X0002           
loc001n0025           7.3490000000E+01      5.3378051514E-03       08555X0002           
loc001n0026           -9.9990000000E+03     0.0000000000E+00       08555X0002           
loc001n0027           -9.9990000000E+03     0.0000000000E+00       08555X0002           
loc001n0028           -9.9990000000E+03     0.0000000000E+00       08555X0002           
loc001n0029           -9.9990000000E+03     0.0000000000E+00       08555X0002           
loc001n0030           -9.9990000000E+03     0.0000000000E+00       08555X0002           
loc001n0031           -9.9990000000E+03     0.0000000000E+00       08555X0002           
loc001n0032           -9.9990000000E+03     0.0000000000E+00       08555X0002           
loc001n0033           -9.9990000000E+03     0.0000000000E+00       08555X0002           
loc001n0034           -9.9990000000E+03     0.0000000000E+00       08555X0002           
loc001n0035           -9.9990000000E+03     0.0000000000E+00       08555X0002           
loc001n0036           -9.9990000000E+03     0.0000000000E+00       08555X0002           
loc001n0037           -9.9990000000E+03     0.0000000000E+00       08555X0002           
loc001n0038           -9.9990000000E+03     0.0000000000E+00       08555X0002           
loc001n0039           -9.9990000000E+03     0.0000000000E+00       08555X0002           
loc001n0040           -9.9990000000E+03     0.0000000000E+00       08555X0002           
loc002n0001           -9.9990000000E+03     0.0000000000E+00       08275X0025           
loc002n0002           -9.9990000000E+03     0.0000000000E+00       08275X0025           
loc002n0003           -9.9990000000E+03     0.0000000000E+00       08275X0025           
loc002n0004           -9.9990000000E+03     0.0000000000E+00       08275X0025           
loc002n0005           -9.9990000000E+03     0.0000000000E+00       08275X0025           
loc002n0006           -9.9990000000E+03     0.0000000000E+00       08275X0025           
loc002n0007           -9.9990000000E+03     0.0000000000E+00       08275X0025           
loc002n0008           -9.9990000000E+03     0.0000000000E+00       08275X0025           
loc002n0009           5.8390000000E+01      2.1342929160E-02       08275X0025           
loc002n0010           5.8398333333E+01      1.1054338214E+00       08275X0025           
loc002n0011           5.8386000000E+01      7.8394153260E-01       08275X0025           
loc002n0012           5.8401666667E+01      7.7839490254E-01       08275X0025           
loc002n0013           5.8274166667E+01      7.3504626337E-01       08275X0025           
loc002n0014           5.8130833333E+01      5.1058983957E-01       08275X0025           
loc002n0015           5.7909000000E+01      4.5726577018E-01       08275X0025           
loc002n0016           5.8110000000E+01      1.5178089584E+00       08275X0025           
loc002n0017           5.8110000000E+01      1.3510061311E+00       08275X0025           
loc002n0018           5.7664545455E+01      1.4726214122E+00       08275X0025           
loc002n0019           5.7790000000E+01      2.6196463954E+00       08275X0025           
loc002n0020           5.7875833333E+01      3.1017564087E+00       08275X0025           
loc002n0021           5.8072500000E+01      2.1342929160E-02       08275X0025           
loc002n0022           5.8175833333E+01      4.4861744261E+00       08275X0025           
loc002n0023           5.8172500000E+01      2.1348445445E+00       08275X0025           
loc002n0024           5.8035833333E+01      1.6632449741E+00       08275X0025           
loc002n0025           5.8043333333E+01      2.4040329474E+00       08275X0025           
loc002n0026           5.7944166667E+01      2.1564211251E+00       08275X0025           
loc002n0027           5.8025833333E+01      1.4208989841E+00       08275X0025           
loc002n0028           5.8173571429E+01      2.7612957369E+00       08275X0025           
loc002n0029           5.8089166667E+01      1.7175393733E+00       08275X0025           
loc002n0030           5.8000909091E+01      1.2408444141E+00       08275X0025           
loc002n0031           5.7920000000E+01      2.6981946625E+00       08275X0025           
loc002n0032           5.7856153846E+01      1.9835556585E+00       08275X0025           
loc002n0033           5.7854166667E+01      1.5382081584E+00       08275X0025           
loc002n0034           5.7843333333E+01      2.1017323370E+00       08275X0025           
loc002n0035           5.7918333333E+01      1.6703335268E+00       08275X0025           
loc002n0036           5.7912500000E+01      1.9109386762E+00       08275X0025           